
**** 11/18/23 13:21:48 ******* PSpice Lite (March 2016) ******* ID# 10813 ****

 ** Profile: "SCHEMATIC1-timp"  [ C:\Users\UTILIZATOR\Desktop\Proiect\pai-pspicefiles\schematic1\timp.sim ] 


 ****     CIRCUIT DESCRIPTION


******************************************************************************




** Creating circuit file "timp.cir" 
** WARNING: THIS AUTOMATICALLY GENERATED FILE MAY BE OVERWRITTEN BY SUBSEQUENT SIMULATIONS

*Libraries: 
* Profile Libraries :
* Local Libraries :
* From [PSPICE NETLIST] section of C:\Users\UTILIZATOR\AppData\Roaming\SPB_Data\cdssetup\OrCAD_PSpice\17.2.0\PSpice.ini file:
.lib "nomd.lib" 

*Analysis directives: 
.AC DEC 0.001 0 1k
--------$
ERROR(ORPSIM-16151): Invalid integer
.OPTIONS ADVCONV
.PROBE64 V(alias(*)) I(alias(*)) W(alias(*)) D(alias(*)) NOISE(alias(*)) 
.INC "..\SCHEMATIC1.net" 



**** INCLUDING SCHEMATIC1.net ****
* source PAI
R_R5         N00780 0 1k
R_R6         N00637 N00780 360k
Q_Q1         N00671 N00637 N00629 BC109C 
Q_Q2         N00694 N00671 N00776 BC109C 
X_P1         0 N00716 N00716 POT PARAMS: SET=0 VALUE=25k
V_V2         VCC 0 18V
R_R1         0 N00846  50k TC=0,0 
R_R14         0 N00846  15k TC=0,0 
R_R3         0 N00629  1k TC=0,0 
R_R9         N00780 N00776  1 TC=0,0 
R_R2         N00671 VCC  200k TC=0,0 
R_R4         N00694 VCC  15k TC=0,0 
R_R8         N00708 N00629  220k TC=0,0 
R_R13         N00846 N00550  1000k TC=0,0 
C_C2         N00694 N00708  15u  TC=0,0 
C_C4         0 N00780  200u  TC=0,0 
C_C1         N00846 N00637  10u  TC=0,0 
V_V3         N00550 0  AC 0.2
+SIN 0 0.2 1k 0 0 0
C_C3         N00708 N00716  10u  TC=0,0 

**** RESUMING timp.cir ****
.END
